Version 4
SHEET 1 3260 1540
WIRE 336 -496 336 -528
WIRE 736 -464 720 -464
WIRE 864 -464 816 -464
WIRE 1472 -464 1456 -464
WIRE 1600 -464 1552 -464
WIRE 336 -368 336 -416
WIRE 624 -368 336 -368
WIRE 720 -368 720 -464
WIRE 720 -368 704 -368
WIRE 1360 -368 1184 -368
WIRE 1456 -368 1456 -464
WIRE 1456 -368 1440 -368
WIRE 336 -336 336 -368
WIRE 720 -336 720 -368
WIRE 736 -336 720 -336
WIRE 1456 -336 1456 -368
WIRE 1472 -336 1456 -336
WIRE 864 -320 864 -464
WIRE 864 -320 800 -320
WIRE 960 -320 864 -320
WIRE 1600 -320 1600 -464
WIRE 1600 -320 1536 -320
WIRE 1696 -320 1600 -320
WIRE 544 -304 496 -304
WIRE 736 -304 624 -304
WIRE 1280 -304 1184 -304
WIRE 1408 -304 1360 -304
WIRE 1472 -304 1408 -304
WIRE 1408 -240 1408 -304
WIRE 336 -224 336 -256
WIRE 1408 -128 1408 -160
WIRE 736 -16 720 -16
WIRE 864 -16 816 -16
WIRE 1472 -16 1456 -16
WIRE 1600 -16 1552 -16
WIRE 2176 -16 2160 -16
WIRE 2304 -16 2256 -16
WIRE 2752 -16 2736 -16
WIRE 2880 -16 2832 -16
WIRE -336 80 -336 48
WIRE -336 80 -416 80
WIRE 624 80 496 80
WIRE 720 80 720 -16
WIRE 720 80 704 80
WIRE 1360 80 944 80
WIRE 1456 80 1456 -16
WIRE 1456 80 1440 80
WIRE 1920 80 1680 80
WIRE 2032 80 2000 80
WIRE 2064 80 2032 80
WIRE 2160 80 2160 -16
WIRE 2160 80 2144 80
WIRE 2640 80 2384 80
WIRE 2736 80 2736 -16
WIRE 2736 80 2720 80
WIRE -416 112 -416 80
WIRE -336 112 -336 80
WIRE 720 112 720 80
WIRE 736 112 720 112
WIRE 1456 112 1456 80
WIRE 1472 112 1456 112
WIRE 2160 112 2160 80
WIRE 2176 112 2160 112
WIRE 2736 112 2736 80
WIRE 2752 112 2736 112
WIRE -208 128 -208 96
WIRE -64 128 -64 96
WIRE 176 128 176 96
WIRE 864 128 864 -16
WIRE 864 128 800 128
WIRE 944 128 944 80
WIRE 944 128 864 128
WIRE 1600 128 1600 -16
WIRE 1600 128 1536 128
WIRE 1680 128 1680 80
WIRE 1680 128 1600 128
WIRE 1696 128 1680 128
WIRE 2304 128 2304 -16
WIRE 2304 128 2240 128
WIRE 2384 128 2384 80
WIRE 2384 128 2304 128
WIRE 2400 128 2384 128
WIRE 2880 128 2880 -16
WIRE 2880 128 2816 128
WIRE 2976 128 2880 128
WIRE 544 144 496 144
WIRE 672 144 624 144
WIRE 736 144 672 144
WIRE 1280 144 1232 144
WIRE 1408 144 1360 144
WIRE 1472 144 1408 144
WIRE 2032 144 2032 80
WIRE 2176 144 2144 144
WIRE 2752 144 2720 144
WIRE 2144 192 2144 144
WIRE 2720 192 2720 144
WIRE 672 208 672 144
WIRE 1408 208 1408 144
WIRE -336 224 -336 192
WIRE -208 240 -208 208
WIRE -64 240 -64 208
WIRE 176 240 176 208
WIRE 2032 256 2032 224
WIRE 672 320 672 288
WIRE 1408 320 1408 288
FLAG 176 240 0
FLAG 176 96 Vdac
FLAG 496 -304 Vdac
FLAG 960 -320 out1
FLAG -64 240 0
FLAG -64 96 Vref/2
FLAG -416 112 0
FLAG -336 224 Vb-
FLAG -336 -32 Vb+
FLAG -208 240 0
FLAG -208 96 Vref
FLAG 768 -352 Vb+
FLAG 768 -288 Vb-
FLAG 1408 -128 0
FLAG 1184 -368 Vdac
FLAG 1696 -320 out2
FLAG 1504 -352 Vb+
FLAG 1504 -288 Vb-
FLAG 1184 -304 Vref
FLAG 336 -224 0
FLAG 336 -528 Vref
FLAG 768 96 Vb+
FLAG 768 160 Vb-
FLAG 496 144 Vref/2
FLAG 496 80 Vdac
FLAG 672 320 0
FLAG 1696 128 out
FLAG 1504 96 Vb+
FLAG 1504 160 Vb-
FLAG 1232 144 Vref/2
FLAG 1408 320 0
FLAG 2400 128 attout
FLAG 2208 96 Vb+
FLAG 2208 160 Vb-
FLAG 2144 192 0
FLAG 2032 256 0
FLAG 2976 128 invout
FLAG 2784 96 Vb+
FLAG 2784 160 Vb-
FLAG 2720 192 0
SYMBOL voltage 176 112 R0
WINDOW 3 24 44 Left 2
WINDOW 123 0 0 Left 2
WINDOW 39 0 0 Left 2
SYMATTR Value {Vdac}
SYMATTR InstName V1
SYMBOL res 608 -352 R270
WINDOW 0 32 56 VTop 2
WINDOW 3 0 56 VBottom 2
SYMATTR InstName R1
SYMATTR Value 16.2k
SYMBOL res 720 -448 R270
WINDOW 0 32 56 VTop 2
WINDOW 3 0 56 VBottom 2
SYMATTR InstName R2
SYMATTR Value 16.9k
SYMBOL voltage -64 112 R0
WINDOW 123 0 0 Left 2
WINDOW 39 0 0 Left 2
SYMATTR InstName V2
SYMATTR Value 2.5
SYMBOL voltage -336 -48 R0
WINDOW 123 0 0 Left 2
WINDOW 39 0 0 Left 2
SYMATTR InstName V3
SYMATTR Value 150
SYMBOL voltage -336 96 R0
WINDOW 123 0 0 Left 2
WINDOW 39 0 0 Left 2
SYMATTR InstName V4
SYMATTR Value 150
SYMBOL voltage -208 112 R0
WINDOW 123 0 0 Left 2
WINDOW 39 0 0 Left 2
SYMATTR InstName V6
SYMATTR Value 5
SYMBOL Opamps\\LM358 768 -384 R0
SYMATTR InstName U1
SYMBOL res 528 -288 R270
WINDOW 0 32 56 VTop 2
WINDOW 3 0 56 VBottom 2
SYMATTR InstName R3
SYMATTR Value 0
SYMBOL res 1344 -352 R270
WINDOW 0 32 56 VTop 2
WINDOW 3 0 56 VBottom 2
SYMATTR InstName R5
SYMATTR Value 13.7k
SYMBOL res 1456 -448 R270
WINDOW 0 32 56 VTop 2
WINDOW 3 0 56 VBottom 2
SYMATTR InstName R6
SYMATTR Value 28k
SYMBOL res 1392 -256 R0
SYMATTR InstName R7
SYMATTR Value 100
SYMBOL Opamps\\LM358 1504 -384 R0
SYMATTR InstName U2
SYMBOL res 1264 -288 R270
WINDOW 0 32 56 VTop 2
WINDOW 3 0 56 VBottom 2
SYMATTR InstName R8
SYMATTR Value 16k
SYMBOL res 320 -512 R0
SYMATTR InstName R9
SYMATTR Value 51m
SYMBOL res 320 -352 R0
SYMATTR InstName R10
SYMATTR Value 1m
SYMBOL res 608 96 R270
WINDOW 0 32 56 VTop 2
WINDOW 3 0 56 VBottom 2
SYMATTR InstName R4
SYMATTR Value 10k
SYMBOL res 720 0 R270
WINDOW 0 32 56 VTop 2
WINDOW 3 0 56 VBottom 2
SYMATTR InstName R11
SYMATTR Value 11k
SYMBOL Opamps\\LM358 768 64 R0
SYMATTR InstName U3
SYMBOL res 656 192 R0
SYMATTR InstName R12
SYMATTR Value 11k
SYMBOL res 528 160 R270
WINDOW 0 32 56 VTop 2
WINDOW 3 0 56 VBottom 2
SYMATTR InstName R15
SYMATTR Value 10k
SYMBOL res 1344 96 R270
WINDOW 0 32 56 VTop 2
WINDOW 3 0 56 VBottom 2
SYMATTR InstName R13
SYMATTR Value 10k
SYMBOL res 1456 0 R270
WINDOW 0 32 56 VTop 2
WINDOW 3 0 56 VBottom 2
SYMATTR InstName R14
SYMATTR Value 20k
SYMBOL Opamps\\LM358 1504 64 R0
SYMATTR InstName U4
SYMBOL res 1392 192 R0
SYMATTR InstName R16
SYMATTR Value 20k
SYMBOL res 1264 160 R270
WINDOW 0 32 56 VTop 2
WINDOW 3 0 56 VBottom 2
SYMATTR InstName R17
SYMATTR Value 10k
SYMBOL res 2048 96 R270
WINDOW 0 32 56 VTop 2
WINDOW 3 0 56 VBottom 2
SYMATTR InstName R26
SYMATTR Value 18k
SYMBOL res 2160 0 R270
WINDOW 0 32 56 VTop 2
WINDOW 3 0 56 VBottom 2
SYMATTR InstName R27
SYMATTR Value 36k
SYMBOL Opamps\\LM358 2208 64 R0
SYMATTR InstName U7
SYMBOL res 1904 96 R270
WINDOW 0 32 56 VTop 2
WINDOW 3 0 56 VBottom 2
SYMATTR InstName R34
SYMATTR Value 18k
SYMBOL res 2016 128 R0
SYMATTR InstName R28
SYMATTR Value 1k
SYMBOL res 2624 96 R270
WINDOW 0 32 56 VTop 2
WINDOW 3 0 56 VBottom 2
SYMATTR InstName R29
SYMATTR Value 10k
SYMBOL res 2736 0 R270
WINDOW 0 32 56 VTop 2
WINDOW 3 0 56 VBottom 2
SYMATTR InstName R30
SYMATTR Value 10k
SYMBOL Opamps\\LM358 2784 64 R0
SYMATTR InstName U8
TEXT 80 304 Left 2 !.lib opamp.sub
TEXT -224 568 Left 2 !.op
TEXT -224 424 Left 2 !;.step dec param R 1 10Meg 1
TEXT -224 464 Left 2 !.step param Vdac 0 5 5
TEXT -224 496 Left 2 !;.param Vdac 0
TEXT -224 528 Left 2 ;Voffset: desired_Vdac_offset * gain / (gain + 1)
